   Input file: \\austin.utexas.edu\disk\geoprofiles\default\hfd263\Desktop\Stevensite_SI_Calcs.pqi
  Output file: \\austin.utexas.edu\disk\geoprofiles\default\hfd263\Desktop\Stevensite_SI_Calcs.pqo
Database file: C:\Program Files (x86)\USGS\Phreeqc Interactive 3.6.2-15100\database\phreeqc.dat

------------------
Reading data base.
------------------

	SOLUTION_MASTER_SPECIES
	SOLUTION_SPECIES
	PHASES
	EXCHANGE_MASTER_SPECIES
	EXCHANGE_SPECIES
	SURFACE_MASTER_SPECIES
	SURFACE_SPECIES
	RATES
	END
------------------------------------
Reading input data for simulation 1.
------------------------------------

	DATABASE C:\Program Files (x86)\USGS\Phreeqc Interactive 3.6.2-15100\database\phreeqc.dat
	SELECTED_OUTPUT 1
	    file                 \\austin.utexas.edu\disk\geoprofiles\default\hfd263\Desktop\Final Project\Stevensite_SI_final.sel
	    saturation_indices   Stevensite
	PHASES
	Stevensite
	    Si4.00Mg2.9O10(OH)2Ca0.1 + 6H+ + 4H2O = 0.1Ca++ + 4H4SiO4 + 2.9Mg++
	    log_k     25.45
	SOLUTION 1 Brackish Groundwater 
	    temp      20.8 
	    pH        7.03 
	    pe        4 
	    redox     pe 
	    units     mol/l 
	    density   1 
	    Mg        0.00088 
	    Ca        0.0034 
	    Si        0.000235
	    water    1 # kg 
	END 
-------------------------------------------
Beginning of initial solution calculations.
-------------------------------------------

Initial solution 1.	Brackish Groundwater 

-----------------------------Solution composition------------------------------

	Elements           Molality       Moles

	Ca                3.401e-03   3.401e-03
	Mg                8.802e-04   8.802e-04
	Si                2.350e-04   2.350e-04

----------------------------Description of solution----------------------------

                                       pH  =   7.030    
                                       pe  =   4.000    
      Specific Conductance (µS/cm,  21°C)  = 379
                          Density (g/cm³)  =   0.99828
                               Volume (L)  =   1.00190
                        Activity of water  =   1.000
                 Ionic strength (mol/kgw)  =   8.562e-03
                       Mass of water (kg)  =   1.000e+00
                 Total alkalinity (eq/kg)  =   3.589e-07
                         Temperature (°C)  =  20.80
                  Electrical balance (eq)  =   8.561e-03
 Percent error, 100*(Cat-|An|)/(Cat+|An|)  =  99.99
                               Iterations  =   4
                                  Total H  = 1.110134e+02
                                  Total O  = 5.550716e+01

----------------------------Distribution of species----------------------------

                                               Log       Log       Log    mole V
   Species          Molality    Activity  Molality  Activity     Gamma   cm³/mol

   H+              1.016e-07   9.333e-08    -6.993    -7.030    -0.037      0.00
   OH-             8.620e-08   7.819e-08    -7.065    -7.107    -0.042     -4.23
   H2O             5.551e+01   9.999e-01     1.744    -0.000     0.000     18.05
Ca            3.401e-03
   Ca+2            3.401e-03   2.345e-03    -2.468    -2.630    -0.161    -18.01
   CaOH+           4.590e-09   4.170e-09    -8.338    -8.380    -0.042     (0)  
H(0)          1.284e-25
   H2              6.420e-26   6.433e-26   -25.192   -25.192     0.001     28.61
Mg            8.802e-04
   Mg+2            8.801e-04   6.104e-04    -3.055    -3.214    -0.159    -21.48
   MgOH+           1.769e-08   1.616e-08    -7.752    -7.791    -0.039     (0)  
O(0)          0.000e+00
   O2              0.000e+00   0.000e+00   -43.373   -43.372     0.001     30.05
Si            2.350e-04
   H4SiO4          2.347e-04   2.352e-04    -3.630    -3.629     0.001     52.45
   H3SiO4-         3.520e-07   3.197e-07    -6.453    -6.495    -0.042     27.92
   H2SiO4-2        2.551e-13   1.761e-13   -12.593   -12.754    -0.161     (0)  

------------------------------Saturation indices-------------------------------

  Phase               SI** log IAP   log K(293 K,   1 atm)

  Chalcedony       -0.03     -3.63   -3.60  SiO2
  Chrysotile       -7.45     25.28   32.73  Mg3Si2O5(OH)4
  H2(g)           -22.10    -25.19   -3.09  H2
  H2O(g)           -1.61     -0.00    1.61  H2O
  O2(g)           -40.51    -43.37   -2.86  O2
  Quartz            0.41     -3.63   -4.04  SiO2
  Sepiolite        -5.07     10.81   15.87  Mg2Si3O7.5OH:3H2O
  Sepiolite(d)     -7.85     10.81   18.66  Mg2Si3O7.5OH:3H2O
  SiO2(a)          -0.88     -3.63   -2.75  SiO2
  Stevensite       -7.37     18.08   25.45  Si4.00Mg2.9O10(OH)2Ca0.1
  Talc             -3.86     18.02   21.88  Mg3Si4O10(OH)2

**For a gas, SI = log10(fugacity). Fugacity = pressure * phi / 1 atm.
  For ideal gases, phi = 1.

------------------
End of simulation.
------------------

------------------------------------
Reading input data for simulation 2.
------------------------------------

	SOLUTION 2 Brackish Groundwater 
	    temp      20.8 
	    pH        7.03 
	    pe        4 
	    redox     pe 
	    units     mol/l 
	    density   1 
	    Mg        0.00088 
	    Ca        0.0034 
	    Si        0.000234 
	    water    1 # kg 
	END 
-------------------------------------------
Beginning of initial solution calculations.
-------------------------------------------

Initial solution 2.	Brackish Groundwater 

-----------------------------Solution composition------------------------------

	Elements           Molality       Moles

	Ca                3.401e-03   3.401e-03
	Mg                8.802e-04   8.802e-04
	Si                2.340e-04   2.340e-04

----------------------------Description of solution----------------------------

                                       pH  =   7.030    
                                       pe  =   4.000    
      Specific Conductance (µS/cm,  21°C)  = 379
                          Density (g/cm³)  =   0.99828
                               Volume (L)  =   1.00190
                        Activity of water  =   1.000
                 Ionic strength (mol/kgw)  =   8.562e-03
                       Mass of water (kg)  =   1.000e+00
                 Total alkalinity (eq/kg)  =   3.574e-07
                         Temperature (°C)  =  20.80
                  Electrical balance (eq)  =   8.561e-03
 Percent error, 100*(Cat-|An|)/(Cat+|An|)  =  99.99
                               Iterations  =   4
                                  Total H  = 1.110134e+02
                                  Total O  = 5.550715e+01

----------------------------Distribution of species----------------------------

                                               Log       Log       Log    mole V
   Species          Molality    Activity  Molality  Activity     Gamma   cm³/mol

   H+              1.016e-07   9.333e-08    -6.993    -7.030    -0.037      0.00
   OH-             8.620e-08   7.819e-08    -7.065    -7.107    -0.042     -4.23
   H2O             5.551e+01   9.999e-01     1.744    -0.000     0.000     18.05
Ca            3.401e-03
   Ca+2            3.401e-03   2.345e-03    -2.468    -2.630    -0.161    -18.01
   CaOH+           4.590e-09   4.170e-09    -8.338    -8.380    -0.042     (0)  
H(0)          1.284e-25
   H2              6.420e-26   6.433e-26   -25.192   -25.192     0.001     28.61
Mg            8.802e-04
   Mg+2            8.801e-04   6.104e-04    -3.055    -3.214    -0.159    -21.48
   MgOH+           1.769e-08   1.616e-08    -7.752    -7.791    -0.039     (0)  
O(0)          0.000e+00
   O2              0.000e+00   0.000e+00   -43.373   -43.372     0.001     30.05
Si            2.340e-04
   H4SiO4          2.337e-04   2.342e-04    -3.631    -3.631     0.001     52.45
   H3SiO4-         3.505e-07   3.184e-07    -6.455    -6.497    -0.042     27.92
   H2SiO4-2        2.540e-13   1.753e-13   -12.595   -12.756    -0.161     (0)  

------------------------------Saturation indices-------------------------------

  Phase               SI** log IAP   log K(293 K,   1 atm)

  Chalcedony       -0.03     -3.63   -3.60  SiO2
  Chrysotile       -7.45     25.28   32.73  Mg3Si2O5(OH)4
  H2(g)           -22.10    -25.19   -3.09  H2
  H2O(g)           -1.61     -0.00    1.61  H2O
  O2(g)           -40.51    -43.37   -2.86  O2
  Quartz            0.41     -3.63   -4.04  SiO2
  Sepiolite        -5.07     10.80   15.87  Mg2Si3O7.5OH:3H2O
  Sepiolite(d)     -7.86     10.80   18.66  Mg2Si3O7.5OH:3H2O
  SiO2(a)          -0.88     -3.63   -2.75  SiO2
  Stevensite       -7.38     18.07   25.45  Si4.00Mg2.9O10(OH)2Ca0.1
  Talc             -3.87     18.01   21.88  Mg3Si4O10(OH)2

**For a gas, SI = log10(fugacity). Fugacity = pressure * phi / 1 atm.
  For ideal gases, phi = 1.

------------------
End of simulation.
------------------

------------------------------------
Reading input data for simulation 3.
------------------------------------

	SOLUTION 3 Brackish Groundwater 
	    temp      20.8 
	    pH        7.4 
	    pe        4 
	    redox     pe 
	    units     mol/l 
	    density   1 
	    Mg        0.00402 
	    Ca        0.0036 
	    Si        0.000204  
	    water    1 # kg 
	END 
-------------------------------------------
Beginning of initial solution calculations.
-------------------------------------------

Initial solution 3.	Brackish Groundwater 

-----------------------------Solution composition------------------------------

	Elements           Molality       Moles

	Ca                3.601e-03   3.601e-03
	Mg                4.021e-03   4.021e-03
	Si                2.041e-04   2.041e-04

----------------------------Description of solution----------------------------

                                       pH  =   7.400    
                                       pe  =   4.000    
      Specific Conductance (µS/cm,  21°C)  = 633
                          Density (g/cm³)  =   0.99843
                               Volume (L)  =   1.00183
                        Activity of water  =   1.000
                 Ionic strength (mol/kgw)  =   1.524e-02
                       Mass of water (kg)  =   1.000e+00
                 Total alkalinity (eq/kg)  =   1.086e-06
                         Temperature (°C)  =  20.80
                  Electrical balance (eq)  =   1.524e-02
 Percent error, 100*(Cat-|An|)/(Cat+|An|)  =  99.99
                               Iterations  =   2
                                  Total H  = 1.110132e+02
                                  Total O  = 5.550703e+01

----------------------------Distribution of species----------------------------

                                               Log       Log       Log    mole V
   Species          Molality    Activity  Molality  Activity     Gamma   cm³/mol

   OH-             2.079e-07   1.833e-07    -6.682    -6.737    -0.055     -4.19
   H+              4.424e-08   3.981e-08    -7.354    -7.400    -0.046      0.00
   H2O             5.551e+01   9.999e-01     1.744    -0.000     0.000     18.05
Ca            3.601e-03
   Ca+2            3.601e-03   2.243e-03    -2.444    -2.649    -0.205    -17.92
   CaOH+           1.057e-08   9.351e-09    -7.976    -8.029    -0.053     (0)  
H(0)          2.333e-26
   H2              1.167e-26   1.171e-26   -25.933   -25.932     0.002     28.61
Mg            4.021e-03
   Mg+2            4.021e-03   2.528e-03    -2.396    -2.597    -0.202    -21.40
   MgOH+           1.759e-07   1.569e-07    -6.755    -6.804    -0.050     (0)  
O(0)          0.000e+00
   O2              0.000e+00   0.000e+00   -41.893   -41.892     0.002     30.05
Si            2.041e-04
   H4SiO4          2.033e-04   2.040e-04    -3.692    -3.690     0.002     52.45
   H3SiO4-         7.361e-07   6.503e-07    -6.133    -6.187    -0.054     27.94
   H2SiO4-2        1.347e-12   8.395e-13   -11.871   -12.076    -0.205     (0)  

------------------------------Saturation indices-------------------------------

  Phase               SI** log IAP   log K(293 K,   1 atm)

  Chalcedony       -0.09     -3.69   -3.60  SiO2
  Chrysotile       -3.50     29.23   32.73  Mg3Si2O5(OH)4
  H2(g)           -22.84    -25.93   -3.09  H2
  H2O(g)           -1.61     -0.00    1.61  H2O
  O2(g)           -39.03    -41.89   -2.86  O2
  Quartz            0.35     -3.69   -4.04  SiO2
  Sepiolite        -2.54     13.33   15.87  Mg2Si3O7.5OH:3H2O
  Sepiolite(d)     -5.33     13.33   18.66  Mg2Si3O7.5OH:3H2O
  SiO2(a)          -0.94     -3.69   -2.75  SiO2
  Stevensite       -3.61     21.84   25.45  Si4.00Mg2.9O10(OH)2Ca0.1
  Talc             -0.04     21.85   21.88  Mg3Si4O10(OH)2

**For a gas, SI = log10(fugacity). Fugacity = pressure * phi / 1 atm.
  For ideal gases, phi = 1.

------------------
End of simulation.
------------------

------------------------------------
Reading input data for simulation 4.
------------------------------------

	SOLUTION 4 Brackish Groundwater 
	    temp      21 
	    pH        7.12 
	    pe        4 
	    redox     pe 
	    units     mol/l 
	    density   1 
	    Mg        0.00092 
	    Ca        0.0031 
	    Si        0.000309  
	    water    1 # kg 
	END 
-------------------------------------------
Beginning of initial solution calculations.
-------------------------------------------

Initial solution 4.	Brackish Groundwater 

-----------------------------Solution composition------------------------------

	Elements           Molality       Moles

	Ca                3.101e-03   3.101e-03
	Mg                9.202e-04   9.202e-04
	Si                3.091e-04   3.091e-04

----------------------------Description of solution----------------------------

                                       pH  =   7.120    
                                       pe  =   4.000    
      Specific Conductance (µS/cm,  21°C)  = 358
                          Density (g/cm³)  =   0.99823
                               Volume (L)  =   1.00195
                        Activity of water  =   1.000
                 Ionic strength (mol/kgw)  =   8.042e-03
                       Mass of water (kg)  =   1.000e+00
                 Total alkalinity (eq/kg)  =   6.255e-07
                         Temperature (°C)  =  21.00
                  Electrical balance (eq)  =   8.041e-03
 Percent error, 100*(Cat-|An|)/(Cat+|An|)  =  99.98
                               Iterations  =   4
                                  Total H  = 1.110137e+02
                                  Total O  = 5.550745e+01

----------------------------Distribution of species----------------------------

                                               Log       Log       Log    mole V
   Species          Molality    Activity  Molality  Activity     Gamma   cm³/mol

   OH-             1.075e-07   9.773e-08    -6.969    -7.010    -0.041     -4.22
   H+              8.240e-08   7.586e-08    -7.084    -7.120    -0.036      0.00
   H2O             5.551e+01   9.999e-01     1.744    -0.000     0.000     18.05
Ca            3.101e-03
   Ca+2            3.101e-03   2.159e-03    -2.509    -2.666    -0.157    -18.01
   CaOH+           5.185e-09   4.724e-09    -8.285    -8.326    -0.040     (0)  
H(0)          8.468e-26
   H2              4.234e-26   4.242e-26   -25.373   -25.372     0.001     28.61
Mg            9.202e-04
   Mg+2            9.201e-04   6.442e-04    -3.036    -3.191    -0.155    -21.50
   MgOH+           2.334e-08   2.138e-08    -7.632    -7.670    -0.038     (0)  
O(0)          0.000e+00
   O2              0.000e+00   0.000e+00   -42.944   -42.944     0.001     30.07
Si            3.091e-04
   H4SiO4          3.085e-04   3.091e-04    -3.511    -3.510     0.001     52.43
   H3SiO4-         5.719e-07   5.208e-07    -6.243    -6.283    -0.041     27.92
   H2SiO4-2        5.132e-13   3.577e-13   -12.290   -12.447    -0.157     (0)  

------------------------------Saturation indices-------------------------------

  Phase               SI** log IAP   log K(294 K,   1 atm)

  Chalcedony        0.09     -3.51   -3.60  SiO2
  Chrysotile       -6.58     26.13   32.70  Mg3Si2O5(OH)4
  H2(g)           -22.28    -25.37   -3.09  H2
  H2O(g)           -1.61     -0.00    1.61  H2O
  O2(g)           -40.08    -42.94   -2.86  O2
  Quartz            0.53     -3.51   -4.04  SiO2
  Sepiolite        -4.30     11.57   15.87  Mg2Si3O7.5OH:3H2O
  Sepiolite(d)     -7.09     11.57   18.66  Mg2Si3O7.5OH:3H2O
  SiO2(a)          -0.76     -3.51   -2.75  SiO2
  Stevensite       -6.29     19.16   25.45  Si4.00Mg2.9O10(OH)2Ca0.1
  Talc             -2.75     19.11   21.86  Mg3Si4O10(OH)2

**For a gas, SI = log10(fugacity). Fugacity = pressure * phi / 1 atm.
  For ideal gases, phi = 1.

------------------
End of simulation.
------------------

------------------------------------
Reading input data for simulation 5.
------------------------------------

	SOLUTION 5 Brackish Groundwater 
	    temp      21.7 
	    pH        7.47
	    pe        4 
	    redox     pe 
	    units     mol/l 
	    density   1 
	    Mg        0.00092 
	    Ca        0.0033 
	    Si        0.000214 
	    water    1 # kg 
	END
-------------------------------------------
Beginning of initial solution calculations.
-------------------------------------------

Initial solution 5.	Brackish Groundwater 

-----------------------------Solution composition------------------------------

	Elements           Molality       Moles

	Ca                3.301e-03   3.301e-03
	Mg                9.202e-04   9.202e-04
	Si                2.140e-04   2.140e-04

----------------------------Description of solution----------------------------

                                       pH  =   7.470    
                                       pe  =   4.000    
      Specific Conductance (µS/cm,  22°C)  = 381
                          Density (g/cm³)  =   0.99808
                               Volume (L)  =   1.00210
                        Activity of water  =   1.000
                 Ionic strength (mol/kgw)  =   8.442e-03
                       Mass of water (kg)  =   1.000e+00
                 Total alkalinity (eq/kg)  =   1.195e-06
                         Temperature (°C)  =  21.70
                  Electrical balance (eq)  =   8.440e-03
 Percent error, 100*(Cat-|An|)/(Cat+|An|)  =  99.97
                               Iterations  =   4
                                  Total H  = 1.110133e+02
                                  Total O  = 5.550707e+01

----------------------------Distribution of species----------------------------

                                               Log       Log       Log    mole V
   Species          Molality    Activity  Molality  Activity     Gamma   cm³/mol

   OH-             2.548e-07   2.313e-07    -6.594    -6.636    -0.042     -4.18
   H+              3.687e-08   3.388e-08    -7.433    -7.470    -0.037      0.00
   H2O             5.551e+01   9.999e-01     1.744    -0.000     0.000     18.06
Ca            3.301e-03
   Ca+2            3.301e-03   2.280e-03    -2.481    -2.642    -0.161    -17.99
   CaOH+           1.228e-08   1.117e-08    -7.911    -7.952    -0.041     (0)  
H(0)          1.677e-26
   H2              8.387e-27   8.403e-27   -26.076   -26.076     0.001     28.61
Mg            9.202e-04
   Mg+2            9.201e-04   6.392e-04    -3.036    -3.194    -0.158    -21.52
   MgOH+           5.542e-08   5.067e-08    -7.256    -7.295    -0.039     (0)  
O(0)          0.000e+00
   O2              0.000e+00   0.000e+00   -41.307   -41.306     0.001     30.13
Si            2.140e-04
   H4SiO4          2.131e-04   2.135e-04    -3.671    -3.671     0.001     52.37
   H3SiO4-         9.095e-07   8.264e-07    -6.041    -6.083    -0.042     27.94
   H2SiO4-2        1.927e-12   1.333e-12   -11.715   -11.875    -0.160     (0)  

------------------------------Saturation indices-------------------------------

  Phase               SI** log IAP   log K(294 K,   1 atm)

  Chalcedony       -0.08     -3.67   -3.59  SiO2
  Chrysotile       -4.72     27.90   32.61  Mg3Si2O5(OH)4
  H2(g)           -22.98    -26.08   -3.09  H2
  H2O(g)           -1.59     -0.00    1.59  H2O
  O2(g)           -38.44    -41.31   -2.87  O2
  Quartz            0.36     -3.67   -4.03  SiO2
  Sepiolite        -3.37     12.48   15.85  Mg2Si3O7.5OH:3H2O
  Sepiolite(d)     -6.18     12.48   18.66  Mg2Si3O7.5OH:3H2O
  SiO2(a)          -0.93     -3.67   -2.74  SiO2
  Stevensite       -4.84     20.61   25.45  Si4.00Mg2.9O10(OH)2Ca0.1
  Talc             -1.22     20.55   21.78  Mg3Si4O10(OH)2

**For a gas, SI = log10(fugacity). Fugacity = pressure * phi / 1 atm.
  For ideal gases, phi = 1.

------------------
End of simulation.
------------------

------------------------------------
Reading input data for simulation 6.
------------------------------------

	SOLUTION 6 Saline Inactive Porewater 
	    temp      25.4 
	    pH        6.88 
	    pe        4 
	    redox     pe 
	    units     mol/l 
	    density   1 
	    Mg        0.049 
	    Ca        0.0154 
	    Si        0.000197 
	    water    1 # kg 
	END 
-------------------------------------------
Beginning of initial solution calculations.
-------------------------------------------

Initial solution 6.	Saline Inactive Porewater 

-----------------------------Solution composition------------------------------

	Elements           Molality       Moles

	Ca                1.543e-02   1.543e-02
	Mg                4.909e-02   4.909e-02
	Si                1.974e-04   1.974e-04

----------------------------Description of solution----------------------------

                                       pH  =   6.880    
                                       pe  =   4.000    
      Specific Conductance (µS/cm,  25°C)  = 4878
                          Density (g/cm³)  =   1.00005
                               Volume (L)  =   1.00178
                        Activity of water  =   0.999
                 Ionic strength (mol/kgw)  =   1.290e-01
                       Mass of water (kg)  =   1.000e+00
                 Total alkalinity (eq/kg)  =   9.384e-07
                         Temperature (°C)  =  25.40
                  Electrical balance (eq)  =   1.290e-01
 Percent error, 100*(Cat-|An|)/(Cat+|An|)  = 100.00
                               Iterations  =   3
                                  Total H  = 1.110132e+02
                                  Total O  = 5.550701e+01

----------------------------Distribution of species----------------------------

                                               Log       Log       Log    mole V
   Species          Molality    Activity  Molality  Activity     Gamma   cm³/mol

   H+              1.618e-07   1.318e-07    -6.791    -6.880    -0.089      0.00
   OH-             1.066e-07   7.907e-08    -6.972    -7.102    -0.130     -3.64
   H2O             5.551e+01   9.989e-01     1.744    -0.000     0.000     18.07
Ca            1.543e-02
   Ca+2            1.543e-02   5.603e-03    -1.812    -2.252    -0.440    -17.35
   CaOH+           9.185e-09   7.046e-09    -8.037    -8.152    -0.115     (0)  
H(0)          2.379e-25
   H2              1.190e-25   1.225e-25   -24.925   -24.912     0.013     28.61
Mg            4.909e-02
   Mg+2            4.909e-02   1.871e-02    -1.309    -1.728    -0.419    -21.07
   MgOH+           6.777e-07   5.337e-07    -6.169    -6.273    -0.104     (0)  
O(0)          0.000e+00
   O2              0.000e+00   0.000e+00   -42.441   -42.429     0.013     30.43
Si            1.974e-04
   H4SiO4          1.971e-04   2.030e-04    -3.705    -3.693     0.013     52.04
   H3SiO4-         3.067e-07   2.302e-07    -6.513    -6.638    -0.125     28.29
   H2SiO4-2        3.420e-13   1.219e-13   -12.466   -12.914    -0.448     (0)  

------------------------------Saturation indices-------------------------------

  Phase               SI** log IAP   log K(298 K,   1 atm)

  Chalcedony       -0.14     -3.69   -3.55  SiO2
  Chrysotile       -3.44     28.71   32.15  Mg3Si2O5(OH)4
  H2(g)           -21.81    -24.91   -3.10  H2
  H2O(g)           -1.49     -0.00    1.49  H2O
  O2(g)           -39.53    -42.43   -2.90  O2
  Quartz            0.28     -3.69   -3.97  SiO2
  Sepiolite        -2.76     12.99   15.75  Mg2Si3O7.5OH:3H2O
  Sepiolite(d)     -5.67     12.99   18.66  Mg2Si3O7.5OH:3H2O
  SiO2(a)          -0.98     -3.69   -2.71  SiO2
  Stevensite       -4.17     21.28   25.45  Si4.00Mg2.9O10(OH)2Ca0.1
  Talc             -0.03     21.33   21.35  Mg3Si4O10(OH)2

**For a gas, SI = log10(fugacity). Fugacity = pressure * phi / 1 atm.
  For ideal gases, phi = 1.

------------------
End of simulation.
------------------

------------------------------------
Reading input data for simulation 7.
------------------------------------

	SOLUTION 7 Saline Inactive Porewater 
	    temp      24.9 
	    pH        7.45 
	    pe        4 
	    redox     pe 
	    units     mol/l 
	    density   1 
	    Mg        0.055 
	    Ca        0.0166 
	    Si        0.000358 
	    water    1 # kg 
	END 
-------------------------------------------
Beginning of initial solution calculations.
-------------------------------------------

Initial solution 7.	Saline Inactive Porewater 

-----------------------------Solution composition------------------------------

	Elements           Molality       Moles

	Ca                1.663e-02   1.663e-02
	Mg                5.511e-02   5.511e-02
	Si                3.587e-04   3.587e-04

----------------------------Description of solution----------------------------

                                       pH  =   7.450    
                                       pe  =   4.000    
      Specific Conductance (µS/cm,  25°C)  = 5302
                          Density (g/cm³)  =   1.00053
                               Volume (L)  =   1.00151
                        Activity of water  =   0.999
                 Ionic strength (mol/kgw)  =   1.435e-01
                       Mass of water (kg)  =   1.000e+00
                 Total alkalinity (eq/kg)  =   5.084e-06
                         Temperature (°C)  =  24.90
                  Electrical balance (eq)  =   1.435e-01
 Percent error, 100*(Cat-|An|)/(Cat+|An|)  = 100.00
                               Iterations  =   3
                                  Total H  = 1.110139e+02
                                  Total O  = 5.550765e+01

----------------------------Distribution of species----------------------------

                                               Log       Log       Log    mole V
   Species          Molality    Activity  Molality  Activity     Gamma   cm³/mol

   OH-             3.854e-07   2.827e-07    -6.414    -6.549    -0.135     -3.63
   H+              4.376e-08   3.548e-08    -7.359    -7.450    -0.091      0.00
   H2O             5.551e+01   9.988e-01     1.744    -0.001     0.000     18.07
Ca            1.663e-02
   Ca+2            1.663e-02   5.866e-03    -1.779    -2.232    -0.453    -17.32
   CaOH+           3.597e-08   2.740e-08    -7.444    -7.562    -0.118     (0)  
H(0)          1.726e-26
   H2              8.631e-27   8.921e-27   -26.064   -26.050     0.014     28.61
Mg            5.511e-02
   Mg+2            5.511e-02   2.047e-02    -1.259    -1.689    -0.430    -21.03
   MgOH+           2.652e-06   2.074e-06    -5.576    -5.683    -0.107     (0)  
O(0)          0.000e+00
   O2              0.000e+00   0.000e+00   -40.329   -40.314     0.014     30.39
Si            3.587e-04
   H4SiO4          3.567e-04   3.687e-04    -3.448    -3.433     0.014     52.09
   H3SiO4-         2.055e-06   1.527e-06    -5.687    -5.816    -0.129     28.30
   H2SiO4-2        8.428e-12   2.908e-12   -11.074   -11.536    -0.462     (0)  

------------------------------Saturation indices-------------------------------

  Phase               SI** log IAP   log K(298 K,   1 atm)

  Chalcedony        0.12     -3.43   -3.55  SiO2
  Chrysotile        0.55     32.77   32.21  Mg3Si2O5(OH)4
  H2(g)           -22.95    -26.05   -3.10  H2
  H2O(g)           -1.51     -0.00    1.51  H2O
  O2(g)           -37.42    -40.31   -2.89  O2
  Quartz            0.55     -3.43   -3.98  SiO2
  Sepiolite         0.36     16.12   15.76  Mg2Si3O7.5OH:3H2O
  Sepiolite(d)     -2.54     16.12   18.66  Mg2Si3O7.5OH:3H2O
  SiO2(a)          -0.72     -3.43   -2.71  SiO2
  Stevensite        0.40     25.85   25.45  Si4.00Mg2.9O10(OH)2Ca0.1
  Talc              4.49     25.90   21.41  Mg3Si4O10(OH)2

**For a gas, SI = log10(fugacity). Fugacity = pressure * phi / 1 atm.
  For ideal gases, phi = 1.

------------------
End of simulation.
------------------

------------------------------------
Reading input data for simulation 8.
------------------------------------

	SOLUTION 8 Saline Inactive Porewater 
	    temp      26.0 
	    pH        7.33 
	    pe        4 
	    redox     pe 
	    units     mol/l 
	    density   1 
	    Mg        0.046 
	    Ca        0.0144 
	    Si        0.000158 
	    water    1 # kg 
	END 
-------------------------------------------
Beginning of initial solution calculations.
-------------------------------------------

Initial solution 8.	Saline Inactive Porewater 

-----------------------------Solution composition------------------------------

	Elements           Molality       Moles

	Ca                1.442e-02   1.442e-02
	Mg                4.608e-02   4.608e-02
	Si                1.583e-04   1.583e-04

----------------------------Description of solution----------------------------

                                       pH  =   7.330    
                                       pe  =   4.000    
      Specific Conductance (µS/cm,  26°C)  = 4662
                          Density (g/cm³)  =   0.99970
                               Volume (L)  =   1.00201
                        Activity of water  =   0.999
                 Ionic strength (mol/kgw)  =   1.210e-01
                       Mass of water (kg)  =   1.000e+00
                 Total alkalinity (eq/kg)  =   2.893e-06
                         Temperature (°C)  =  26.00
                  Electrical balance (eq)  =   1.210e-01
 Percent error, 100*(Cat-|An|)/(Cat+|An|)  = 100.00
                               Iterations  =   3
                                  Total H  = 1.110131e+02
                                  Total O  = 5.550685e+01

----------------------------Distribution of species----------------------------

                                               Log       Log       Log    mole V
   Species          Molality    Activity  Molality  Activity     Gamma   cm³/mol

   OH-             3.124e-07   2.332e-07    -6.505    -6.632    -0.127     -3.64
   H+              5.723e-08   4.677e-08    -7.242    -7.330    -0.088      0.00
   H2O             5.551e+01   9.990e-01     1.744    -0.000     0.000     18.07
Ca            1.442e-02
   Ca+2            1.442e-02   5.330e-03    -1.841    -2.273    -0.432    -17.36
   CaOH+           2.452e-08   1.889e-08    -7.610    -7.724    -0.113     (0)  
H(0)          2.983e-26
   H2              1.491e-26   1.534e-26   -25.826   -25.814     0.012     28.60
Mg            4.608e-02
   Mg+2            4.608e-02   1.783e-02    -1.337    -1.749    -0.412    -21.11
   MgOH+           1.913e-06   1.513e-06    -5.718    -5.820    -0.102     (0)  
O(0)          0.000e+00
   O2              0.000e+00   0.000e+00   -40.443   -40.431     0.012     30.48
Si            1.583e-04
   H4SiO4          1.576e-04   1.620e-04    -3.803    -3.790     0.012     52.00
   H3SiO4-         7.001e-07   5.287e-07    -6.155    -6.277    -0.122     28.30
   H2SiO4-2        2.257e-12   8.203e-13   -11.646   -12.086    -0.440     (0)  

------------------------------Saturation indices-------------------------------

  Phase               SI** log IAP   log K(299 K,   1 atm)

  Chalcedony       -0.25     -3.79   -3.54  SiO2
  Chrysotile       -0.93     31.15   32.08  Mg3Si2O5(OH)4
  H2(g)           -22.71    -25.81   -3.10  H2
  H2O(g)           -1.48     -0.00    1.48  H2O
  O2(g)           -37.53    -40.43   -2.90  O2
  Quartz            0.18     -3.79   -3.97  SiO2
  Sepiolite        -1.28     14.45   15.73  Mg2Si3O7.5OH:3H2O
  Sepiolite(d)     -4.21     14.45   18.66  Mg2Si3O7.5OH:3H2O
  SiO2(a)          -1.09     -3.79   -2.70  SiO2
  Stevensite       -1.93     23.52   25.45  Si4.00Mg2.9O10(OH)2Ca0.1
  Talc              2.29     23.57   21.29  Mg3Si4O10(OH)2

**For a gas, SI = log10(fugacity). Fugacity = pressure * phi / 1 atm.
  For ideal gases, phi = 1.

------------------
End of simulation.
------------------

------------------------------------
Reading input data for simulation 9.
------------------------------------

	SOLUTION 9 Saline Inactive Porewater 
	    temp      27.1 
	    pH        7.13 
	    pe        4 
	    redox     pe 
	    units     mol/l 
	    density   1 
	    Mg        0.045 
	    Ca        0.0142 
	    Si        0.000268 
	    water    1 # kg 
	END 
-------------------------------------------
Beginning of initial solution calculations.
-------------------------------------------

Initial solution 9.	Saline Inactive Porewater 

-----------------------------Solution composition------------------------------

	Elements           Molality       Moles

	Ca                1.422e-02   1.422e-02
	Mg                4.508e-02   4.508e-02
	Si                2.685e-04   2.685e-04

----------------------------Description of solution----------------------------

                                       pH  =   7.130    
                                       pe  =   4.000    
      Specific Conductance (µS/cm,  27°C)  = 4684
                          Density (g/cm³)  =   0.99935
                               Volume (L)  =   1.00234
                        Activity of water  =   0.999
                 Ionic strength (mol/kgw)  =   1.186e-01
                       Mass of water (kg)  =   1.000e+00
                 Total alkalinity (eq/kg)  =   2.222e-06
                         Temperature (°C)  =  27.10
                  Electrical balance (eq)  =   1.186e-01
 Percent error, 100*(Cat-|An|)/(Cat+|An|)  = 100.00
                               Iterations  =   3
                                  Total H  = 1.110135e+02
                                  Total O  = 5.550729e+01

----------------------------Distribution of species----------------------------

                                               Log       Log       Log    mole V
   Species          Molality    Activity  Molality  Activity     Gamma   cm³/mol

   OH-             2.137e-07   1.598e-07    -6.670    -6.796    -0.126     -3.60
   H+              9.064e-08   7.413e-08    -7.043    -7.130    -0.087      0.00
   H2O             5.551e+01   9.990e-01     1.744    -0.000     0.000     18.08
Ca            1.422e-02
   Ca+2            1.422e-02   5.277e-03    -1.847    -2.278    -0.431    -17.35
   CaOH+           1.531e-08   1.180e-08    -7.815    -7.928    -0.113     (0)  
H(0)          7.416e-26
   H2              3.708e-26   3.811e-26   -25.431   -25.419     0.012     28.60
Mg            4.508e-02
   Mg+2            4.507e-02   1.750e-02    -1.346    -1.757    -0.411    -21.15
   MgOH+           1.306e-06   1.034e-06    -5.884    -5.986    -0.102     (0)  
O(0)          0.000e+00
   O2              0.000e+00   0.000e+00   -40.882   -40.870     0.012     30.56
Si            2.685e-04
   H4SiO4          2.677e-04   2.751e-04    -3.572    -3.561     0.012     51.91
   H3SiO4-         7.775e-07   5.880e-07    -6.109    -6.231    -0.121     28.32
   H2SiO4-2        1.691e-12   6.176e-13   -11.772   -12.209    -0.438     (0)  

------------------------------Saturation indices-------------------------------

  Phase               SI** log IAP   log K(300 K,   1 atm)

  Chalcedony       -0.03     -3.56   -3.53  SiO2
  Chrysotile       -1.55     30.39   31.94  Mg3Si2O5(OH)4
  H2(g)           -22.31    -25.42   -3.11  H2
  H2O(g)           -1.45     -0.00    1.45  H2O
  O2(g)           -37.96    -40.87   -2.91  O2
  Quartz            0.39     -3.56   -3.95  SiO2
  Sepiolite        -1.38     14.32   15.71  Mg2Si3O7.5OH:3H2O
  Sepiolite(d)     -4.34     14.32   18.66  Mg2Si3O7.5OH:3H2O
  SiO2(a)          -0.87     -3.56   -2.69  SiO2
  Stevensite       -2.23     23.22   25.45  Si4.00Mg2.9O10(OH)2Ca0.1
  Talc              2.11     23.27   21.16  Mg3Si4O10(OH)2

**For a gas, SI = log10(fugacity). Fugacity = pressure * phi / 1 atm.
  For ideal gases, phi = 1.

------------------
End of simulation.
------------------

-------------------------------------
Reading input data for simulation 10.
-------------------------------------

	SOLUTION 10 Saline Inactive Porewater 
	    temp      23.4 
	    pH        6.85 
	    pe        4 
	    redox     pe 
	    units     mol/l 
	    density   1 
	    Mg        0.050 
	    Ca        0.0152 
	    Si        0.000234 
	    water    1 # kg 
	END 
-------------------------------------------
Beginning of initial solution calculations.
-------------------------------------------

Initial solution 10.	Saline Inactive Porewater 

-----------------------------Solution composition------------------------------

	Elements           Molality       Moles

	Ca                1.523e-02   1.523e-02
	Mg                5.009e-02   5.009e-02
	Si                2.344e-04   2.344e-04

----------------------------Description of solution----------------------------

                                       pH  =   6.850    
                                       pe  =   4.000    
      Specific Conductance (µS/cm,  23°C)  = 4723
                          Density (g/cm³)  =   1.00059
                               Volume (L)  =   1.00126
                        Activity of water  =   0.999
                 Ionic strength (mol/kgw)  =   1.306e-01
                       Mass of water (kg)  =   1.000e+00
                 Total alkalinity (eq/kg)  =   7.761e-07
                         Temperature (°C)  =  23.40
                  Electrical balance (eq)  =   1.306e-01
 Percent error, 100*(Cat-|An|)/(Cat+|An|)  = 100.00
                               Iterations  =   3
                                  Total H  = 1.110134e+02
                                  Total O  = 5.550716e+01

----------------------------Distribution of species----------------------------

                                               Log       Log       Log    mole V
   Species          Molality    Activity  Molality  Activity     Gamma   cm³/mol

   H+              1.733e-07   1.413e-07    -6.761    -6.850    -0.089      0.00
   OH-             8.536e-08   6.329e-08    -7.069    -7.199    -0.130     -3.72
   H2O             5.551e+01   9.989e-01     1.744    -0.000     0.000     18.06
Ca            1.523e-02
   Ca+2            1.523e-02   5.529e-03    -1.817    -2.257    -0.440    -17.38
   CaOH+           8.458e-09   6.489e-09    -8.073    -8.188    -0.115     (0)  
H(0)          2.786e-25
   H2              1.393e-25   1.435e-25   -24.856   -24.843     0.013     28.61
Mg            5.009e-02
   Mg+2            5.009e-02   1.909e-02    -1.300    -1.719    -0.419    -21.01
   MgOH+           5.384e-07   4.240e-07    -6.269    -6.373    -0.104     (0)  
O(0)          0.000e+00
   O2              0.000e+00   0.000e+00   -43.227   -43.214     0.013     30.27
Si            2.344e-04
   H4SiO4          2.341e-04   2.413e-04    -3.631    -3.618     0.013     52.22
   H3SiO4-         3.172e-07   2.381e-07    -6.499    -6.623    -0.125     28.24
   H2SiO4-2        2.897e-13   1.032e-13   -12.538   -12.986    -0.448     (0)  

------------------------------Saturation indices-------------------------------

  Phase               SI** log IAP   log K(296 K,   1 atm)

  Chalcedony       -0.05     -3.62   -3.57  SiO2
  Chrysotile       -3.69     28.71   32.40  Mg3Si2O5(OH)4
  H2(g)           -21.75    -24.84   -3.10  H2
  H2O(g)           -1.54     -0.00    1.54  H2O
  O2(g)           -40.33    -43.21   -2.88  O2
  Quartz            0.39     -3.62   -4.00  SiO2
  Sepiolite        -2.69     13.11   15.80  Mg2Si3O7.5OH:3H2O
  Sepiolite(d)     -5.55     13.11   18.66  Mg2Si3O7.5OH:3H2O
  SiO2(a)          -0.89     -3.62   -2.73  SiO2
  Stevensite       -4.03     21.42   25.45  Si4.00Mg2.9O10(OH)2Ca0.1
  Talc             -0.11     21.47   21.58  Mg3Si4O10(OH)2

**For a gas, SI = log10(fugacity). Fugacity = pressure * phi / 1 atm.
  For ideal gases, phi = 1.

------------------
End of simulation.
------------------

-------------------------------------
Reading input data for simulation 11.
-------------------------------------

	SOLUTION 11 Saline Inactive Porewater 
	    temp      24.5 
	    pH        6.92 
	    pe        4 
	    redox     pe 
	    units     mol/l 
	    density   1 
	    Mg        0.050 
	    Ca        0.0153 
	    Si        0.000237 
	    water    1 # kg 
	END 
-------------------------------------------
Beginning of initial solution calculations.
-------------------------------------------

Initial solution 11.	Saline Inactive Porewater 

-----------------------------Solution composition------------------------------

	Elements           Molality       Moles

	Ca                1.533e-02   1.533e-02
	Mg                5.009e-02   5.009e-02
	Si                2.374e-04   2.374e-04

----------------------------Description of solution----------------------------

                                       pH  =   6.920    
                                       pe  =   4.000    
      Specific Conductance (µS/cm,  25°C)  = 4843
                          Density (g/cm³)  =   1.00032
                               Volume (L)  =   1.00153
                        Activity of water  =   0.999
                 Ionic strength (mol/kgw)  =   1.308e-01
                       Mass of water (kg)  =   1.000e+00
                 Total alkalinity (eq/kg)  =   1.062e-06
                         Temperature (°C)  =  24.50
                  Electrical balance (eq)  =   1.308e-01
 Percent error, 100*(Cat-|An|)/(Cat+|An|)  = 100.00
                               Iterations  =   3
                                  Total H  = 1.110134e+02
                                  Total O  = 5.550717e+01

----------------------------Distribution of species----------------------------

                                               Log       Log       Log    mole V
   Species          Molality    Activity  Molality  Activity     Gamma   cm³/mol

   H+              1.476e-07   1.202e-07    -6.831    -6.920    -0.089      0.00
   OH-             1.092e-07   8.094e-08    -6.962    -7.092    -0.130     -3.67
   H2O             5.551e+01   9.989e-01     1.744    -0.000     0.000     18.07
Ca            1.533e-02
   Ca+2            1.533e-02   5.553e-03    -1.815    -2.255    -0.441    -17.36
   CaOH+           9.986e-09   7.657e-09    -8.001    -8.116    -0.115     (0)  
H(0)          1.996e-25
   H2              9.979e-26   1.028e-25   -25.001   -24.988     0.013     28.61
Mg            5.009e-02
   Mg+2            5.009e-02   1.905e-02    -1.300    -1.720    -0.420    -21.04
   MgOH+           6.980e-07   5.494e-07    -6.156    -6.260    -0.104     (0)  
O(0)          0.000e+00
   O2              0.000e+00   0.000e+00   -42.580   -42.567     0.013     30.36
Si            2.374e-04
   H4SiO4          2.370e-04   2.443e-04    -3.625    -3.612     0.013     52.12
   H3SiO4-         3.926e-07   2.944e-07    -6.406    -6.531    -0.125     28.27
   H2SiO4-2        4.536e-13   1.612e-13   -12.343   -12.793    -0.449     (0)  

------------------------------Saturation indices-------------------------------

  Phase               SI** log IAP   log K(297 K,   1 atm)

  Chalcedony       -0.05     -3.61   -3.56  SiO2
  Chrysotile       -3.13     29.14   32.26  Mg3Si2O5(OH)4
  H2(g)           -21.89    -24.99   -3.10  H2
  H2O(g)           -1.52     -0.00    1.52  H2O
  O2(g)           -39.68    -42.57   -2.89  O2
  Quartz            0.38     -3.61   -3.99  SiO2
  Sepiolite        -2.37     13.40   15.77  Mg2Si3O7.5OH:3H2O
  Sepiolite(d)     -5.26     13.40   18.66  Mg2Si3O7.5OH:3H2O
  SiO2(a)          -0.90     -3.61   -2.72  SiO2
  Stevensite       -3.59     21.86   25.45  Si4.00Mg2.9O10(OH)2Ca0.1
  Talc              0.46     21.91   21.46  Mg3Si4O10(OH)2

**For a gas, SI = log10(fugacity). Fugacity = pressure * phi / 1 atm.
  For ideal gases, phi = 1.

------------------
End of simulation.
------------------

-------------------------------------
Reading input data for simulation 12.
-------------------------------------

	SOLUTION 12 Saline Inactive Porewater 
	    temp      23.4 
	    pH        7.54 
	    pe        4 
	    redox     pe 
	    units     mol/l 
	    density   1 
	    Mg        0.021 
	    Ca        0.0082 
	    Si        0.000696 
	    water    1 # kg 
	END 
-------------------------------------------
Beginning of initial solution calculations.
-------------------------------------------

Initial solution 12.	Saline Inactive Porewater 

-----------------------------Solution composition------------------------------

	Elements           Molality       Moles

	Ca                8.207e-03   8.207e-03
	Mg                2.102e-02   2.102e-02
	Si                6.966e-04   6.966e-04

----------------------------Description of solution----------------------------

                                       pH  =   7.540    
                                       pe  =   4.000    
      Specific Conductance (µS/cm,  23°C)  = 2289
                          Density (g/cm³)  =   0.99890
                               Volume (L)  =   1.00201
                        Activity of water  =   0.999
                 Ionic strength (mol/kgw)  =   5.845e-02
                       Mass of water (kg)  =   1.000e+00
                 Total alkalinity (eq/kg)  =   5.872e-06
                         Temperature (°C)  =  23.40
                  Electrical balance (eq)  =   5.845e-02
 Percent error, 100*(Cat-|An|)/(Cat+|An|)  =  99.98
                               Iterations  =   2
                                  Total H  = 1.110152e+02
                                  Total O  = 5.550900e+01

----------------------------Distribution of species----------------------------

                                               Log       Log       Log    mole V
   Species          Molality    Activity  Molality  Activity     Gamma   cm³/mol

   OH-             3.871e-07   3.102e-07    -6.412    -6.508    -0.096     -3.91
   H+              3.402e-08   2.884e-08    -7.468    -7.540    -0.072      0.00
   H2O             5.551e+01   9.995e-01     1.744    -0.000     0.000     18.06
Ca            8.207e-03
   Ca+2            8.207e-03   3.730e-03    -2.086    -2.428    -0.343    -17.61
   CaOH+           2.640e-08   2.145e-08    -7.578    -7.669    -0.090     (0)  
H(0)          1.181e-26
   H2              5.904e-27   5.984e-27   -26.229   -26.223     0.006     28.61
Mg            2.102e-02
   Mg+2            2.102e-02   9.814e-03    -1.677    -2.008    -0.331    -21.23
   MgOH+           1.287e-06   1.068e-06    -5.890    -5.971    -0.081     (0)  
O(0)          0.000e+00
   O2              0.000e+00   0.000e+00   -40.459   -40.453     0.006     30.27
Si            6.966e-04
   H4SiO4          6.924e-04   7.018e-04    -3.160    -3.154     0.006     52.22
   H3SiO4-         4.205e-06   3.392e-06    -5.376    -5.470    -0.093     28.13
   H2SiO4-2        1.591e-11   7.201e-12   -10.798   -11.143    -0.344     (0)  

------------------------------Saturation indices-------------------------------

  Phase               SI** log IAP   log K(296 K,   1 atm)

  Chalcedony        0.42     -3.15   -3.57  SiO2
  Chrysotile        0.51     32.91   32.40  Mg3Si2O5(OH)4
  H2(g)           -23.13    -26.22   -3.10  H2
  H2O(g)           -1.54     -0.00    1.54  H2O
  O2(g)           -37.57    -40.45   -2.88  O2
  Quartz            0.85     -3.15   -4.00  SiO2
  Sepiolite         0.88     16.68   15.80  Mg2Si3O7.5OH:3H2O
  Sepiolite(d)     -1.98     16.68   18.66  Mg2Si3O7.5OH:3H2O
  SiO2(a)          -0.43     -3.15   -2.73  SiO2
  Stevensite        1.11     26.56   25.45  Si4.00Mg2.9O10(OH)2Ca0.1
  Talc              5.02     26.60   21.58  Mg3Si4O10(OH)2

**For a gas, SI = log10(fugacity). Fugacity = pressure * phi / 1 atm.
  For ideal gases, phi = 1.

------------------
End of simulation.
------------------

-------------------------------------
Reading input data for simulation 13.
-------------------------------------

	SOLUTION 13 Saline Inactive Porewater 
	    temp      24.3 
	    pH        7.22 
	    pe        4 
	    redox     pe 
	    units     mol/l 
	    density   1 
	    Mg        0.065 
	    Ca        0.0193 
	    Si        0.000452 
	    water    1 # kg 
	END 
-------------------------------------------
Beginning of initial solution calculations.
-------------------------------------------

Initial solution 13.	Saline Inactive Porewater 

-----------------------------Solution composition------------------------------

	Elements           Molality       Moles

	Ca                1.935e-02   1.935e-02
	Mg                6.516e-02   6.516e-02
	Si                4.531e-04   4.531e-04

----------------------------Description of solution----------------------------

                                       pH  =   7.220    
                                       pe  =   4.000    
      Specific Conductance (µS/cm,  24°C)  = 6052
                          Density (g/cm³)  =   1.00129
                               Volume (L)  =   1.00111
                        Activity of water  =   0.999
                 Ionic strength (mol/kgw)  =   1.690e-01
                       Mass of water (kg)  =   1.000e+00
                 Total alkalinity (eq/kg)  =   3.403e-06
                         Temperature (°C)  =  24.30
                  Electrical balance (eq)  =   1.690e-01
 Percent error, 100*(Cat-|An|)/(Cat+|An|)  = 100.00
                               Iterations  =   3
                                  Total H  = 1.110142e+02
                                  Total O  = 5.550803e+01

----------------------------Distribution of species----------------------------

                                               Log       Log       Log    mole V
   Species          Molality    Activity  Molality  Activity     Gamma   cm³/mol

   OH-             2.206e-07   1.590e-07    -6.656    -6.799    -0.142     -3.60
   H+              7.491e-08   6.026e-08    -7.125    -7.220    -0.095      0.00
   H2O             5.551e+01   9.986e-01     1.744    -0.001     0.000     18.07
Ca            1.935e-02
   Ca+2            1.935e-02   6.522e-03    -1.713    -2.186    -0.472    -17.28
   CaOH+           2.379e-08   1.794e-08    -7.624    -7.746    -0.123     (0)  
H(0)          4.979e-26
   H2              2.490e-26   2.588e-26   -25.604   -25.587     0.017     28.61
Mg            6.516e-02
   Mg+2            6.515e-02   2.328e-02    -1.186    -1.633    -0.447    -20.96
   MgOH+           1.700e-06   1.315e-06    -5.770    -5.881    -0.112     (0)  
O(0)          0.000e+00
   O2              0.000e+00   0.000e+00   -41.451   -41.434     0.017     30.35
Si            4.531e-04
   H4SiO4          4.515e-04   4.695e-04    -3.345    -3.328     0.017     52.14
   H3SiO4-         1.533e-06   1.121e-06    -5.814    -5.950    -0.136     28.31
   H2SiO4-2        3.689e-12   1.209e-12   -11.433   -11.918    -0.484     (0)  

------------------------------Saturation indices-------------------------------

  Phase               SI** log IAP   log K(297 K,   1 atm)

  Chalcedony        0.23     -3.33   -3.56  SiO2
  Chrysotile       -0.52     31.76   32.29  Mg3Si2O5(OH)4
  H2(g)           -22.49    -25.59   -3.10  H2
  H2O(g)           -1.52     -0.00    1.52  H2O
  O2(g)           -38.55    -41.43   -2.89  O2
  Quartz            0.66     -3.33   -3.99  SiO2
  Sepiolite        -0.15     15.63   15.78  Mg2Si3O7.5OH:3H2O
  Sepiolite(d)     -3.03     15.63   18.66  Mg2Si3O7.5OH:3H2O
  SiO2(a)          -0.61     -3.33   -2.72  SiO2
  Stevensite       -0.40     25.05   25.45  Si4.00Mg2.9O10(OH)2Ca0.1
  Talc              3.63     25.11   21.48  Mg3Si4O10(OH)2

**For a gas, SI = log10(fugacity). Fugacity = pressure * phi / 1 atm.
  For ideal gases, phi = 1.

------------------
End of simulation.
------------------

-------------------------------------
Reading input data for simulation 14.
-------------------------------------

	SOLUTION 14 Saline Inactive Porewater 
	    temp      24.0 
	    pH        7.14 
	    pe        4 
	    redox     pe 
	    units     mol/l 
	    density   1 
	    Mg        0.061 
	    Ca        0.0176 
	    Si        0.000379 
	    water    1 # kg 
	END 
-------------------------------------------
Beginning of initial solution calculations.
-------------------------------------------

Initial solution 14.	Saline Inactive Porewater 

-----------------------------Solution composition------------------------------

	Elements           Molality       Moles

	Ca                1.764e-02   1.764e-02
	Mg                6.114e-02   6.114e-02
	Si                3.798e-04   3.798e-04

----------------------------Description of solution----------------------------

                                       pH  =   7.140    
                                       pe  =   4.000    
      Specific Conductance (µS/cm,  24°C)  = 5647
                          Density (g/cm³)  =   1.00108
                               Volume (L)  =   1.00115
                        Activity of water  =   0.999
                 Ionic strength (mol/kgw)  =   1.575e-01
                       Mass of water (kg)  =   1.000e+00
                 Total alkalinity (eq/kg)  =   2.462e-06
                         Temperature (°C)  =  24.00
                  Electrical balance (eq)  =   1.575e-01
 Percent error, 100*(Cat-|An|)/(Cat+|An|)  = 100.00
                               Iterations  =   3
                                  Total H  = 1.110140e+02
                                  Total O  = 5.550774e+01

----------------------------Distribution of species----------------------------

                                               Log       Log       Log    mole V
   Species          Molality    Activity  Molality  Activity     Gamma   cm³/mol

   OH-             1.779e-07   1.292e-07    -6.750    -6.889    -0.139     -3.63
   H+              8.974e-08   7.244e-08    -7.047    -7.140    -0.093      0.00
   H2O             5.551e+01   9.987e-01     1.744    -0.001     0.000     18.06
Ca            1.764e-02
   Ca+2            1.764e-02   6.068e-03    -1.754    -2.217    -0.463    -17.31
   CaOH+           1.832e-08   1.388e-08    -7.737    -7.858    -0.121     (0)  
H(0)          7.238e-26
   H2              3.619e-26   3.753e-26   -25.441   -25.426     0.016     28.61
Mg            6.114e-02
   Mg+2            6.113e-02   2.223e-02    -1.214    -1.653    -0.439    -20.97
   MgOH+           1.307e-06   1.016e-06    -5.884    -5.993    -0.109     (0)  
O(0)          0.000e+00
   O2              0.000e+00   0.000e+00   -41.869   -41.854     0.016     30.32
Si            3.798e-04
   H4SiO4          3.788e-04   3.928e-04    -3.422    -3.406     0.016     52.16
   H3SiO4-         1.048e-06   7.720e-07    -5.980    -6.112    -0.133     28.29
   H2SiO4-2        2.024e-12   6.789e-13   -11.694   -12.168    -0.474     (0)  

------------------------------Saturation indices-------------------------------

  Phase               SI** log IAP   log K(297 K,   1 atm)

  Chalcedony        0.16     -3.40   -3.56  SiO2
  Chrysotile       -1.26     31.07   32.33  Mg3Si2O5(OH)4
  H2(g)           -22.33    -25.43   -3.10  H2
  H2O(g)           -1.53     -0.00    1.53  H2O
  O2(g)           -38.97    -41.85   -2.89  O2
  Quartz            0.59     -3.40   -4.00  SiO2
  Sepiolite        -0.75     15.04   15.79  Mg2Si3O7.5OH:3H2O
  Sepiolite(d)     -3.62     15.04   18.66  Mg2Si3O7.5OH:3H2O
  SiO2(a)          -0.68     -3.40   -2.72  SiO2
  Stevensite       -1.25     24.20   25.45  Si4.00Mg2.9O10(OH)2Ca0.1
  Talc              2.75     24.26   21.51  Mg3Si4O10(OH)2

**For a gas, SI = log10(fugacity). Fugacity = pressure * phi / 1 atm.
  For ideal gases, phi = 1.

------------------
End of simulation.
------------------

-------------------------------------
Reading input data for simulation 15.
-------------------------------------

	SOLUTION 15 Saline Inactive Porewater 
	    temp      24.5 
	    pH        7.3 
	    pe        4 
	    redox     pe 
	    units     mol/l 
	    density   1 
	    Mg        0.123 
	    Ca        0.0328 
	    Si        0.000348 
	    water    1 # kg 
	END 
-------------------------------------------
Beginning of initial solution calculations.
-------------------------------------------

Initial solution 15.	Saline Inactive Porewater 

-----------------------------Solution composition------------------------------

	Elements           Molality       Moles

	Ca                3.294e-02   3.294e-02
	Mg                1.235e-01   1.235e-01
	Si                3.495e-04   3.495e-04

----------------------------Description of solution----------------------------

                                       pH  =   7.300    
                                       pe  =   4.000    
      Specific Conductance (µS/cm,  25°C)  = 10347
                          Density (g/cm³)  =   1.00463
                               Volume (L)  =   0.99973
                        Activity of water  =   0.997
                 Ionic strength (mol/kgw)  =   3.129e-01
                       Mass of water (kg)  =   1.000e+00
                 Total alkalinity (eq/kg)  =   5.446e-06
                         Temperature (°C)  =  24.50
                  Electrical balance (eq)  =   3.129e-01
 Percent error, 100*(Cat-|An|)/(Cat+|An|)  = 100.00
                               Iterations  =   3
                                  Total H  = 1.110138e+02
                                  Total O  = 5.550762e+01

----------------------------Distribution of species----------------------------

                                               Log       Log       Log    mole V
   Species          Molality    Activity  Molality  Activity     Gamma   cm³/mol

   OH-             2.891e-07   1.939e-07    -6.539    -6.713    -0.174     -3.29
   H+              6.419e-08   5.012e-08    -7.193    -7.300    -0.107      0.00
   H2O             5.551e+01   9.973e-01     1.744    -0.001     0.000     18.07
Ca            3.294e-02
   Ca+2            3.294e-02   9.442e-03    -1.482    -2.025    -0.543    -17.05
   CaOH+           4.255e-08   3.118e-08    -7.371    -7.506    -0.135     (0)  
H(0)          3.326e-26
   H2              1.663e-26   1.787e-26   -25.779   -25.748     0.031     28.61
Mg            1.235e-01
   Mg+2            1.235e-01   3.865e-02    -0.908    -1.413    -0.505    -20.74
   MgOH+           3.600e-06   2.669e-06    -5.444    -5.574    -0.130     (0)  
O(0)          0.000e+00
   O2              0.000e+00   0.000e+00   -41.080   -41.048     0.031     30.36
Si            3.495e-04
   H4SiO4          3.479e-04   3.739e-04    -3.459    -3.427     0.031     52.12
   H3SiO4-         1.578e-06   1.081e-06    -5.802    -5.966    -0.164     28.46
   H2SiO4-2        5.306e-12   1.420e-12   -11.275   -11.848    -0.572     (0)  

------------------------------Saturation indices-------------------------------

  Phase               SI** log IAP   log K(297 K,   1 atm)

  Chalcedony        0.13     -3.42   -3.56  SiO2
  Chrysotile        0.44     32.71   32.26  Mg3Si2O5(OH)4
  H2(g)           -22.65    -25.75   -3.10  H2
  H2O(g)           -1.52     -0.00    1.52  H2O
  O2(g)           -38.16    -41.05   -2.89  O2
  Quartz            0.56     -3.42   -3.99  SiO2
  Sepiolite         0.32     16.09   15.77  Mg2Si3O7.5OH:3H2O
  Sepiolite(d)     -2.57     16.09   18.66  Mg2Si3O7.5OH:3H2O
  SiO2(a)          -0.71     -3.42   -2.72  SiO2
  Stevensite        0.35     25.80   25.45  Si4.00Mg2.9O10(OH)2Ca0.1
  Talc              4.40     25.86   21.46  Mg3Si4O10(OH)2

**For a gas, SI = log10(fugacity). Fugacity = pressure * phi / 1 atm.
  For ideal gases, phi = 1.

------------------
End of simulation.
------------------

-------------------------------------
Reading input data for simulation 16.
-------------------------------------

	SOLUTION 16 Saline Inactive Porewater 
	    temp      23.8 
	    pH        7.31 
	    pe        4 
	    redox     pe 
	    units     mol/l 
	    density   1 
	    Mg        0.132 
	    Ca        0.0337 
	    Si        0.000390 
	    water    1 # kg 
	END 
-------------------------------------------
Beginning of initial solution calculations.
-------------------------------------------

Initial solution 16.	Saline Inactive Porewater 

-----------------------------Solution composition------------------------------

	Elements           Molality       Moles

	Ca                3.386e-02   3.386e-02
	Mg                1.326e-01   1.326e-01
	Si                3.918e-04   3.918e-04

----------------------------Description of solution----------------------------

                                       pH  =   7.310    
                                       pe  =   4.000    
      Specific Conductance (µS/cm,  24°C)  = 10730
                          Density (g/cm³)  =   1.00526
                               Volume (L)  =   0.99936
                        Activity of water  =   0.997
                 Ionic strength (mol/kgw)  =   3.329e-01
                       Mass of water (kg)  =   1.000e+00
                 Total alkalinity (eq/kg)  =   5.739e-06
                         Temperature (°C)  =  23.80
                  Electrical balance (eq)  =   3.329e-01
 Percent error, 100*(Cat-|An|)/(Cat+|An|)  = 100.00
                               Iterations  =   3
                                  Total H  = 1.110140e+02
                                  Total O  = 5.550779e+01

----------------------------Distribution of species----------------------------

                                               Log       Log       Log    mole V
   Species          Molality    Activity  Molality  Activity     Gamma   cm³/mol

   OH-             2.822e-07   1.879e-07    -6.549    -6.726    -0.177     -3.28
   H+              6.289e-08   4.898e-08    -7.201    -7.310    -0.109      0.00
   H2O             5.551e+01   9.972e-01     1.744    -0.001     0.000     18.06
Ca            3.386e-02
   Ca+2            3.386e-02   9.577e-03    -1.470    -2.019    -0.548    -17.04
   CaOH+           4.420e-08   3.236e-08    -7.355    -7.490    -0.135     (0)  
H(0)          3.184e-26
   H2              1.592e-26   1.719e-26   -25.798   -25.765     0.033     28.61
Mg            1.326e-01
   Mg+2            1.326e-01   4.110e-02    -0.877    -1.386    -0.509    -20.70
   MgOH+           3.689e-06   2.725e-06    -5.433    -5.565    -0.132     (0)  
O(0)          0.000e+00
   O2              0.000e+00   0.000e+00   -41.275   -41.242     0.033     30.31
Si            3.918e-04
   H4SiO4          3.900e-04   4.211e-04    -3.409    -3.376     0.033     52.18
   H3SiO4-         1.786e-06   1.215e-06    -5.748    -5.915    -0.167     28.45
   H2SiO4-2        5.942e-12   1.560e-12   -11.226   -11.807    -0.581     (0)  

------------------------------Saturation indices-------------------------------

  Phase               SI** log IAP   log K(296 K,   1 atm)

  Chalcedony        0.19     -3.37   -3.57  SiO2
  Chrysotile        0.60     32.95   32.35  Mg3Si2O5(OH)4
  H2(g)           -22.67    -25.76   -3.10  H2
  H2O(g)           -1.54     -0.00    1.53  H2O
  O2(g)           -38.36    -41.24   -2.88  O2
  Quartz            0.62     -3.37   -4.00  SiO2
  Sepiolite         0.55     16.34   15.79  Mg2Si3O7.5OH:3H2O
  Sepiolite(d)     -2.32     16.34   18.66  Mg2Si3O7.5OH:3H2O
  SiO2(a)          -0.65     -3.37   -2.72  SiO2
  Stevensite        0.69     26.14   25.45  Si4.00Mg2.9O10(OH)2Ca0.1
  Talc              4.67     26.20   21.54  Mg3Si4O10(OH)2

**For a gas, SI = log10(fugacity). Fugacity = pressure * phi / 1 atm.
  For ideal gases, phi = 1.

------------------
End of simulation.
------------------

-------------------------------------
Reading input data for simulation 17.
-------------------------------------

	SOLUTION 17 Saline Inactive Porewater 
	    temp      25.0 
	    pH        7.03 
	    pe        4 
	    redox     pe 
	    units     mol/l 
	    density   1 
	    Mg        0.095 
	    Ca        0.0261 
	    Si        0.000437 
	    water    1 # kg 
	END 
-------------------------------------------
Beginning of initial solution calculations.
-------------------------------------------

Initial solution 17.	Saline Inactive Porewater 

-----------------------------Solution composition------------------------------

	Elements           Molality       Moles

	Ca                2.619e-02   2.619e-02
	Mg                9.532e-02   9.532e-02
	Si                4.385e-04   4.385e-04

----------------------------Description of solution----------------------------

                                       pH  =   7.030    
                                       pe  =   4.000    
      Specific Conductance (µS/cm,  25°C)  = 8426
                          Density (g/cm³)  =   1.00286
                               Volume (L)  =   1.00055
                        Activity of water  =   0.998
                 Ionic strength (mol/kgw)  =   2.430e-01
                       Mass of water (kg)  =   1.000e+00
                 Total alkalinity (eq/kg)  =   2.709e-06
                         Temperature (°C)  =  25.00
                  Electrical balance (eq)  =   2.430e-01
 Percent error, 100*(Cat-|An|)/(Cat+|An|)  = 100.00
                               Iterations  =   3
                                  Total H  = 1.110142e+02
                                  Total O  = 5.550797e+01

----------------------------Distribution of species----------------------------

                                               Log       Log       Log    mole V
   Species          Molality    Activity  Molality  Activity     Gamma   cm³/mol

   OH-             1.566e-07   1.082e-07    -6.805    -6.966    -0.160     -3.41
   H+              1.181e-07   9.333e-08    -6.928    -7.030    -0.102      0.00
   H2O             5.551e+01   9.979e-01     1.744    -0.001     0.000     18.07
Ca            2.619e-02
   Ca+2            2.619e-02   7.989e-03    -1.582    -2.098    -0.516    -17.14
   CaOH+           1.918e-08   1.418e-08    -7.717    -7.848    -0.131     (0)  
H(0)          1.166e-25
   H2              5.830e-26   6.166e-26   -25.234   -25.210     0.024     28.61
Mg            9.532e-02
   Mg+2            9.532e-02   3.132e-02    -1.021    -1.504    -0.483    -20.85
   MgOH+           1.612e-06   1.216e-06    -5.793    -5.915    -0.122     (0)  
O(0)          0.000e+00
   O2              0.000e+00   0.000e+00   -41.986   -41.962     0.024     30.40
Si            4.385e-04
   H4SiO4          4.374e-04   4.626e-04    -3.359    -3.335     0.024     52.08
   H3SiO4-         1.039e-06   7.309e-07    -5.984    -6.136    -0.153     28.41
   H2SiO4-2        1.833e-12   5.328e-13   -11.737   -12.273    -0.537     (0)  

------------------------------Saturation indices-------------------------------

  Phase               SI** log IAP   log K(298 K,   1 atm)

  Chalcedony        0.22     -3.33   -3.55  SiO2
  Chrysotile       -1.20     31.00   32.20  Mg3Si2O5(OH)4
  H2(g)           -22.11    -25.21   -3.10  H2
  H2O(g)           -1.50     -0.00    1.50  H2O
  O2(g)           -39.07    -41.96   -2.89  O2
  Quartz            0.65     -3.33   -3.98  SiO2
  Sepiolite        -0.65     15.11   15.76  Mg2Si3O7.5OH:3H2O
  Sepiolite(d)     -3.55     15.11   18.66  Mg2Si3O7.5OH:3H2O
  SiO2(a)          -0.62     -3.33   -2.71  SiO2
  Stevensite       -1.18     24.27   25.45  Si4.00Mg2.9O10(OH)2Ca0.1
  Talc              2.93     24.33   21.40  Mg3Si4O10(OH)2

**For a gas, SI = log10(fugacity). Fugacity = pressure * phi / 1 atm.
  For ideal gases, phi = 1.

------------------
End of simulation.
------------------

-------------------------------------
Reading input data for simulation 18.
-------------------------------------

	SOLUTION 18 Saline Inactive Porewater 
	    temp      25.1 
	    pH        6.9 
	    pe        4 
	    redox     pe 
	    units     mol/l 
	    density   1 
	    Mg        0.081 
	    Ca        0.0208 
	    Si        0.000342 
	    water    1 # kg 
	END 
-------------------------------------------
Beginning of initial solution calculations.
-------------------------------------------

Initial solution 18.	Saline Inactive Porewater 

-----------------------------Solution composition------------------------------

	Elements           Molality       Moles

	Ca                2.086e-02   2.086e-02
	Mg                8.123e-02   8.123e-02
	Si                3.430e-04   3.430e-04

----------------------------Description of solution----------------------------

                                       pH  =   6.900    
                                       pe  =   4.000    
      Specific Conductance (µS/cm,  25°C)  = 7245
                          Density (g/cm³)  =   1.00189
                               Volume (L)  =   1.00095
                        Activity of water  =   0.998
                 Ionic strength (mol/kgw)  =   2.042e-01
                       Mass of water (kg)  =   1.000e+00
                 Total alkalinity (eq/kg)  =   1.612e-06
                         Temperature (°C)  =  25.10
                  Electrical balance (eq)  =   2.042e-01
 Percent error, 100*(Cat-|An|)/(Cat+|An|)  = 100.00
                               Iterations  =   3
                                  Total H  = 1.110138e+02
                                  Total O  = 5.550759e+01

----------------------------Distribution of species----------------------------

                                               Log       Log       Log    mole V
   Species          Molality    Activity  Molality  Activity     Gamma   cm³/mol

   H+              1.580e-07   1.259e-07    -6.801    -6.900    -0.099      0.00
   OH-             1.147e-07   8.087e-08    -6.941    -7.092    -0.152     -3.49
   H2O             5.551e+01   9.983e-01     1.744    -0.001     0.000     18.07
Ca            2.086e-02
   Ca+2            2.086e-02   6.664e-03    -1.681    -2.176    -0.496    -17.20
   CaOH+           1.176e-08   8.770e-09    -7.929    -8.057    -0.128     (0)  
H(0)          2.139e-25
   H2              1.069e-25   1.121e-25   -24.971   -24.950     0.020     28.61
Mg            8.123e-02
   Mg+2            8.123e-02   2.773e-02    -1.090    -1.557    -0.467    -20.92
   MgOH+           1.055e-06   8.056e-07    -5.977    -6.094    -0.117     (0)  
O(0)          0.000e+00
   O2              0.000e+00   0.000e+00   -42.469   -42.448     0.020     30.41
Si            3.430e-04
   H4SiO4          3.424e-04   3.589e-04    -3.465    -3.445     0.020     52.07
   H3SiO4-         5.884e-07   4.218e-07    -6.230    -6.375    -0.145     28.37
   H2SiO4-2        7.453e-13   2.294e-13   -12.128   -12.639    -0.512     (0)  

------------------------------Saturation indices-------------------------------

  Phase               SI** log IAP   log K(298 K,   1 atm)

  Chalcedony        0.11     -3.44   -3.55  SiO2
  Chrysotile       -2.35     29.84   32.19  Mg3Si2O5(OH)4
  H2(g)           -21.85    -24.95   -3.10  H2
  H2O(g)           -1.50     -0.00    1.50  H2O
  O2(g)           -39.56    -42.45   -2.89  O2
  Quartz            0.54     -3.44   -3.98  SiO2
  Sepiolite        -1.61     14.15   15.76  Mg2Si3O7.5OH:3H2O
  Sepiolite(d)     -4.51     14.15   18.66  Mg2Si3O7.5OH:3H2O
  SiO2(a)          -0.73     -3.44   -2.71  SiO2
  Stevensite       -2.56     22.89   25.45  Si4.00Mg2.9O10(OH)2Ca0.1
  Talc              1.56     22.95   21.39  Mg3Si4O10(OH)2

**For a gas, SI = log10(fugacity). Fugacity = pressure * phi / 1 atm.
  For ideal gases, phi = 1.

------------------
End of simulation.
------------------

-------------------------------------
Reading input data for simulation 19.
-------------------------------------

	SOLUTION 19 Saline Inactive Porewater 
	    temp      28.6 
	    pH        6.72 
	    pe        4 
	    redox     pe 
	    units     mol/l 
	    density   1 
	    Mg        0.048 
	    Ca        0.0146 
	    Si        0.000323 
	    water    1 # kg 
	END 
-------------------------------------------
Beginning of initial solution calculations.
-------------------------------------------

Initial solution 19.	Saline Inactive Porewater 

-----------------------------Solution composition------------------------------

	Elements           Molality       Moles

	Ca                1.463e-02   1.463e-02
	Mg                4.809e-02   4.809e-02
	Si                3.236e-04   3.236e-04

----------------------------Description of solution----------------------------

                                       pH  =   6.720    
                                       pe  =   4.000    
      Specific Conductance (µS/cm,  29°C)  = 5073
                          Density (g/cm³)  =   0.99909
                               Volume (L)  =   1.00270
                        Activity of water  =   0.999
                 Ionic strength (mol/kgw)  =   1.254e-01
                       Mass of water (kg)  =   1.000e+00
                 Total alkalinity (eq/kg)  =   8.645e-07
                         Temperature (°C)  =  28.60
                  Electrical balance (eq)  =   1.254e-01
 Percent error, 100*(Cat-|An|)/(Cat+|An|)  = 100.00
                               Iterations  =   3
                                  Total H  = 1.110137e+02
                                  Total O  = 5.550751e+01

----------------------------Distribution of species----------------------------

                                               Log       Log       Log    mole V
   Species          Molality    Activity  Molality  Activity     Gamma   cm³/mol

   H+              2.337e-07   1.905e-07    -6.631    -6.720    -0.089      0.00
   OH-             9.353e-08   6.948e-08    -7.029    -7.158    -0.129     -3.54
   H2O             5.551e+01   9.989e-01     1.744    -0.000     0.000     18.09
Ca            1.463e-02
   Ca+2            1.463e-02   5.327e-03    -1.835    -2.274    -0.439    -17.31
   CaOH+           6.038e-09   4.634e-09    -8.219    -8.334    -0.115     (0)  
H(0)          4.821e-25
   H2              2.410e-25   2.481e-25   -24.618   -24.605     0.013     28.60
Mg            4.809e-02
   Mg+2            4.808e-02   1.837e-02    -1.318    -1.736    -0.418    -21.18
   MgOH+           6.116e-07   4.820e-07    -6.214    -6.317    -0.103     (0)  
O(0)          0.000e+00
   O2              0.000e+00   0.000e+00   -42.035   -42.022     0.013     30.67
Si            3.236e-04
   H4SiO4          3.232e-04   3.327e-04    -3.491    -3.478     0.013     51.79
   H3SiO4-         3.870e-07   2.909e-07    -6.412    -6.536    -0.124     28.36
   H2SiO4-2        3.650e-13   1.306e-13   -12.438   -12.884    -0.446     (0)  

------------------------------Saturation indices-------------------------------

  Phase               SI** log IAP   log K(301 K,   1 atm)

  Chalcedony        0.03     -3.48   -3.51  SiO2
  Chrysotile       -3.60     28.16   31.76  Mg3Si2O5(OH)4
  H2(g)           -21.50    -24.61   -3.11  H2
  H2O(g)           -1.41     -0.00    1.41  H2O
  O2(g)           -39.10    -42.02   -2.92  O2
  Quartz            0.45     -3.48   -3.93  SiO2
  Sepiolite        -2.69     12.97   15.67  Mg2Si3O7.5OH:3H2O
  Sepiolite(d)     -5.69     12.97   18.66  Mg2Si3O7.5OH:3H2O
  SiO2(a)          -0.79     -3.48   -2.68  SiO2
  Stevensite       -4.30     21.15   25.45  Si4.00Mg2.9O10(OH)2Ca0.1
  Talc              0.21     21.20   20.99  Mg3Si4O10(OH)2

**For a gas, SI = log10(fugacity). Fugacity = pressure * phi / 1 atm.
  For ideal gases, phi = 1.

------------------
End of simulation.
------------------

-------------------------------------
Reading input data for simulation 20.
-------------------------------------

	SOLUTION 20 Saline Inactive Porewater 
	    temp      27.6 
	    pH        6.8 
	    pe        4 
	    redox     pe 
	    units     mol/l 
	    density   1 
	    Mg        0.072 
	    Ca        0.0191 
	    Si        0.000489 
	    water    1 # kg 
	END 
-------------------------------------------
Beginning of initial solution calculations.
-------------------------------------------

Initial solution 20.	Saline Inactive Porewater 

-----------------------------Solution composition------------------------------

	Elements           Molality       Moles

	Ca                1.915e-02   1.915e-02
	Mg                7.218e-02   7.218e-02
	Si                4.902e-04   4.902e-04

----------------------------Description of solution----------------------------

                                       pH  =   6.800    
                                       pe  =   4.000    
      Specific Conductance (µS/cm,  28°C)  = 6922
                          Density (g/cm³)  =   1.00072
                               Volume (L)  =   1.00185
                        Activity of water  =   0.998
                 Ionic strength (mol/kgw)  =   1.827e-01
                       Mass of water (kg)  =   1.000e+00
                 Total alkalinity (eq/kg)  =   1.582e-06
                         Temperature (°C)  =  27.60
                  Electrical balance (eq)  =   1.827e-01
 Percent error, 100*(Cat-|An|)/(Cat+|An|)  = 100.00
                               Iterations  =   3
                                  Total H  = 1.110144e+02
                                  Total O  = 5.550818e+01

----------------------------Distribution of species----------------------------

                                               Log       Log       Log    mole V
   Species          Molality    Activity  Molality  Activity     Gamma   cm³/mol

   H+              1.980e-07   1.585e-07    -6.703    -6.800    -0.097      0.00
   OH-             1.087e-07   7.755e-08    -6.964    -7.110    -0.147     -3.44
   H2O             5.551e+01   9.984e-01     1.744    -0.001     0.000     18.08
Ca            1.915e-02
   Ca+2            1.915e-02   6.280e-03    -1.718    -2.202    -0.484    -17.20
   CaOH+           8.762e-09   6.565e-09    -8.057    -8.183    -0.125     (0)  
H(0)          3.324e-25
[...]

                                       pH  =   7.990    
                                       pe  =   4.000    
      Specific Conductance (µS/cm,  18°C)  = 7488
                          Density (g/cm³)  =   1.00467
                               Volume (L)  =   0.99885
                        Activity of water  =   0.998
                 Ionic strength (mol/kgw)  =   2.551e-01
                       Mass of water (kg)  =   1.000e+00
                 Total alkalinity (eq/kg)  =   1.264e-05
                         Temperature (°C)  =  17.90
                  Electrical balance (eq)  =   2.551e-01
 Percent error, 100*(Cat-|An|)/(Cat+|An|)  = 100.00
                               Iterations  =   3
                                  Total H  = 1.110133e+02
                                  Total O  = 5.550706e+01

----------------------------Distribution of species----------------------------

                                               Log       Log       Log    mole V
   Species          Molality    Activity  Molality  Activity     Gamma   cm³/mol

   OH-             8.162e-07   5.630e-07    -6.088    -6.249    -0.161     -3.75
   H+              1.295e-08   1.023e-08    -7.888    -7.990    -0.102      0.00
   H2O             5.551e+01   9.978e-01     1.744    -0.001     0.000     18.04
Ca            2.519e-02
   Ca+2            2.519e-02   7.689e-03    -1.599    -2.114    -0.515    -17.29
   CaOH+           1.681e-07   1.244e-07    -6.775    -6.905    -0.131     (0)  
H(0)          1.503e-27
   H2              7.515e-28   7.970e-28   -27.124   -27.099     0.026     28.61
Mg            1.024e-01
   Mg+2            1.023e-01   3.371e-02    -0.990    -1.472    -0.482    -20.62
   MgOH+           8.210e-06   6.189e-06    -5.086    -5.208    -0.123     (0)  
O(0)          0.000e+00
   O2              0.000e+00   0.000e+00   -40.558   -40.532     0.026     29.79
Si            2.097e-04
   H4SiO4          2.063e-04   2.187e-04    -3.686    -3.660     0.026     52.74
   H3SiO4-         3.463e-06   2.433e-06    -5.461    -5.614    -0.153     28.18
   H2SiO4-2        3.446e-11   9.986e-12   -10.463   -11.001    -0.538     (0)  

------------------------------Saturation indices-------------------------------

  Phase               SI** log IAP   log K(291 K,   1 atm)

  Chalcedony       -0.02     -3.66   -3.64  SiO2
  Chrysotile        3.10     36.20   33.10  Mg3Si2O5(OH)4
  H2(g)           -24.02    -27.10   -3.08  H2
  H2O(g)           -1.69     -0.00    1.69  H2O
  O2(g)           -37.69    -40.53   -2.84  O2
  Quartz            0.43     -3.66   -4.09  SiO2
  Sepiolite         2.08     18.04   15.95  Mg2Si3O7.5OH:3H2O
  Sepiolite(d)     -0.62     18.04   18.66  Mg2Si3O7.5OH:3H2O
  SiO2(a)          -0.89     -3.66   -2.77  SiO2
  Stevensite        3.37     28.82   25.45  Si4.00Mg2.9O10(OH)2Ca0.1
  Talc              6.66     28.89   22.23  Mg3Si4O10(OH)2

**For a gas, SI = log10(fugacity). Fugacity = pressure * phi / 1 atm.
  For ideal gases, phi = 1.

------------------
End of simulation.
------------------

-------------------------------------
Reading input data for simulation 55.
-------------------------------------

	SOLUTION 55 Saline water Lake Clifton near boardwalk Surface 
	    temp      16.0 
	    pH        7.89 
	    pe        4 
	    redox     pe 
	    units     mol/l 
	    density   1 
	    Mg        0.102 
	    Ca        0.0245 
	    Si        0.000185 
	    water    1 # kg 
	END  
-------------------------------------------
Beginning of initial solution calculations.
-------------------------------------------

Initial solution 55.	Saline water Lake Clifton near boardwalk Surface 

-----------------------------Solution composition------------------------------

	Elements           Molality       Moles

	Ca                2.459e-02   2.459e-02
	Mg                1.024e-01   1.024e-01
	Si                1.856e-04   1.856e-04

----------------------------Description of solution----------------------------

                                       pH  =   7.890    
                                       pe  =   4.000    
      Specific Conductance (µS/cm,  16°C)  = 7124
                          Density (g/cm³)  =   1.00496
                               Volume (L)  =   0.99854
                        Activity of water  =   0.998
                 Ionic strength (mol/kgw)  =   2.539e-01
                       Mass of water (kg)  =   1.000e+00
                 Total alkalinity (eq/kg)  =   8.393e-06
                         Temperature (°C)  =  16.00
                  Electrical balance (eq)  =   2.539e-01
 Percent error, 100*(Cat-|An|)/(Cat+|An|)  = 100.00
                               Iterations  =   3
                                  Total H  = 1.110132e+02
                                  Total O  = 5.550697e+01

----------------------------Distribution of species----------------------------

                                               Log       Log       Log    mole V
   Species          Molality    Activity  Molality  Activity     Gamma   cm³/mol

   OH-             5.531e-07   3.822e-07    -6.257    -6.418    -0.161     -3.87
   H+              1.629e-08   1.288e-08    -7.788    -7.890    -0.102      0.00
   H2O             5.551e+01   9.978e-01     1.744    -0.001     0.000     18.04
Ca            2.459e-02
   Ca+2            2.459e-02   7.539e-03    -1.609    -2.123    -0.513    -17.35
   CaOH+           1.308e-07   9.691e-08    -6.884    -7.014    -0.130     (0)  
H(0)          2.431e-27
   H2              1.215e-27   1.289e-27   -26.915   -26.890     0.025     28.62
Mg            1.024e-01
   Mg+2            1.024e-01   3.386e-02    -0.990    -1.470    -0.480    -20.57
   MgOH+           5.457e-06   4.119e-06    -5.263    -5.385    -0.122     (0)  
O(0)          0.000e+00
   O2              0.000e+00   0.000e+00   -41.622   -41.597     0.025     29.61
Si            1.856e-04
   H4SiO4          1.834e-04   1.944e-04    -3.737    -3.711     0.025     52.94
   H3SiO4-         2.268e-06   1.596e-06    -5.644    -5.797    -0.153     28.10
   H2SiO4-2        1.560e-11   4.541e-12   -10.807   -11.343    -0.536     (0)  

------------------------------Saturation indices-------------------------------

  Phase               SI** log IAP   log K(289 K,   1 atm)

  Chalcedony       -0.05     -3.71   -3.66  SiO2
  Chrysotile        2.16     35.51   33.35  Mg3Si2O5(OH)4
  H2(g)           -23.81    -26.89   -3.08  H2
  H2O(g)           -1.74     -0.00    1.74  H2O
  O2(g)           -38.78    -41.60   -2.82  O2
  Quartz            0.41     -3.71   -4.12  SiO2
  Sepiolite         1.48     17.49   16.00  Mg2Si3O7.5OH:3H2O
  Sepiolite(d)     -1.17     17.49   18.66  Mg2Si3O7.5OH:3H2O
  SiO2(a)          -0.92     -3.71   -2.79  SiO2
  Stevensite        2.57     28.02   25.45  Si4.00Mg2.9O10(OH)2Ca0.1
  Talc              5.63     28.09   22.46  Mg3Si4O10(OH)2

**For a gas, SI = log10(fugacity). Fugacity = pressure * phi / 1 atm.
  For ideal gases, phi = 1.

------------------
End of simulation.
------------------

-------------------------------------
Reading input data for simulation 56.
-------------------------------------

	SOLUTION 57 Saline water Lake Clifton active Surface 
	    temp      28.5 
	    pH        7.54 
	    pe        4 
	    redox     pe 
	    units     mol/l 
	    density   1 
	    Mg        0.150 
	    Ca        0.0382 
	    Si        0.000107 
	    water    1 # kg 
	END 
-------------------------------------------
Beginning of initial solution calculations.
-------------------------------------------

Initial solution 57.	Saline water Lake Clifton active Surface 

-----------------------------Solution composition------------------------------

	Elements           Molality       Moles

	Ca                3.840e-02   3.840e-02
	Mg                1.508e-01   1.508e-01
	Si                1.076e-04   1.076e-04

----------------------------Description of solution----------------------------

                                       pH  =   7.540    
                                       pe  =   4.000    
      Specific Conductance (µS/cm,  29°C)  = 13150
                          Density (g/cm³)  =   1.00506
                               Volume (L)  =   1.00015
                        Activity of water  =   0.997
                 Ionic strength (mol/kgw)  =   3.783e-01
                       Mass of water (kg)  =   1.000e+00
                 Total alkalinity (eq/kg)  =   1.239e-05
                         Temperature (°C)  =  28.50
                  Electrical balance (eq)  =   3.783e-01
 Percent error, 100*(Cat-|An|)/(Cat+|An|)  = 100.00
                               Iterations  =   3
                                  Total H  = 1.110129e+02
                                  Total O  = 5.550666e+01

----------------------------Distribution of species----------------------------

                                               Log       Log       Log    mole V
   Species          Molality    Activity  Molality  Activity     Gamma   cm³/mol

   OH-             6.958e-07   4.547e-07    -6.158    -6.342    -0.185     -3.01
   H+              3.731e-08   2.884e-08    -7.428    -7.540    -0.112      0.00
   H2O             5.551e+01   9.968e-01     1.744    -0.001     0.000     18.09
Ca            3.840e-02
   Ca+2            3.840e-02   1.045e-02    -1.416    -1.981    -0.565    -16.90
   CaOH+           8.223e-08   5.996e-08    -7.085    -7.222    -0.137     (0)  
H(0)          1.043e-26
   H2              5.214e-27   5.689e-27   -26.283   -26.245     0.038     28.60
Mg            1.508e-01
   Mg+2            1.508e-01   4.535e-02    -0.822    -1.343    -0.522    -20.78
   MgOH+           1.064e-05   7.777e-06    -4.973    -5.109    -0.136     (0)  
O(0)          3.067e-39
   O2              1.534e-39   1.673e-39   -38.814   -38.776     0.038     30.66
Si            1.076e-04
   H4SiO4          1.066e-04   1.163e-04    -3.972    -3.935     0.038     51.80
   H3SiO4-         1.000e-06   6.695e-07    -6.000    -6.174    -0.174     28.61
   H2SiO4-2        7.917e-12   1.974e-12   -11.101   -11.705    -0.603     (0)  

------------------------------Saturation indices-------------------------------

  Phase               SI** log IAP   log K(301 K,   1 atm)

  Chalcedony       -0.42     -3.93   -3.51  SiO2
  Chrysotile        1.57     33.34   31.77  Mg3Si2O5(OH)4
  H2(g)           -23.14    -26.24   -3.11  H2
  H2O(g)           -1.42     -0.00    1.41  H2O
  O2(g)           -35.86    -38.78   -2.92  O2
  Quartz           -0.00     -3.93   -3.93  SiO2
  Sepiolite         0.00     15.67   15.67  Mg2Si3O7.5OH:3H2O
  Sepiolite(d)     -2.99     15.67   18.66  Mg2Si3O7.5OH:3H2O
  SiO2(a)          -1.25     -3.93   -2.68  SiO2
  Stevensite       -0.04     25.41   25.45  Si4.00Mg2.9O10(OH)2Ca0.1
  Talc              4.47     25.48   21.00  Mg3Si4O10(OH)2

**For a gas, SI = log10(fugacity). Fugacity = pressure * phi / 1 atm.
  For ideal gases, phi = 1.

------------------
End of simulation.
------------------

-------------------------------------
Reading input data for simulation 57.
-------------------------------------

	SOLUTION 58 Saline water Lake Clifton western shoreline Surface 
	    temp      33.3 
	    pH        7.27 
	    pe        4 
	    redox     pe 
	    units     mol/l 
	    density   1 
	    Mg        0.156 
	    Ca        0.0406 
	    Si        0.000114 
	    water    1 # kg 
	END 
-------------------------------------------
Beginning of initial solution calculations.
-------------------------------------------

Initial solution 58.	Saline water Lake Clifton western shoreline Surface 

-----------------------------Solution composition------------------------------

	Elements           Molality       Moles

	Ca                4.082e-02   4.082e-02
	Mg                1.569e-01   1.569e-01
	Si                1.146e-04   1.146e-04

----------------------------Description of solution----------------------------

                                       pH  =   7.270    
                                       pe  =   4.000    
      Specific Conductance (µS/cm,  33°C)  = 14956
                          Density (g/cm³)  =   1.00398
                               Volume (L)  =   1.00147
                        Activity of water  =   0.997
                 Ionic strength (mol/kgw)  =   3.953e-01
                       Mass of water (kg)  =   1.000e+00
                 Total alkalinity (eq/kg)  =   1.010e-05
                         Temperature (°C)  =  33.30
                  Electrical balance (eq)  =   3.953e-01
 Percent error, 100*(Cat-|An|)/(Cat+|An|)  = 100.00
                               Iterations  =   3
                                  Total H  = 1.110129e+02
                                  Total O  = 5.550668e+01

----------------------------Distribution of species----------------------------

                                               Log       Log       Log    mole V
   Species          Molality    Activity  Molality  Activity     Gamma   cm³/mol

   OH-             5.322e-07   3.448e-07    -6.274    -6.462    -0.189     -2.84
   H+              6.975e-08   5.370e-08    -7.156    -7.270    -0.114      0.00
   H2O             5.551e+01   9.966e-01     1.744    -0.001     0.000     18.11
Ca            4.082e-02
   Ca+2            4.082e-02   1.089e-02    -1.389    -1.963    -0.574    -16.81
   CaOH+           4.613e-08   3.354e-08    -7.336    -7.474    -0.138     (0)  
H(0)          3.440e-26
   H2              1.720e-26   1.884e-26   -25.764   -25.725     0.040     28.60
Mg            1.569e-01
   Mg+2            1.568e-01   4.639e-02    -0.805    -1.334    -0.529    -20.89
   MgOH+           8.917e-06   6.481e-06    -5.050    -5.188    -0.139     (0)  
O(0)          8.600e-39
   O2              4.300e-39   4.710e-39   -38.367   -38.327     0.040     30.99
Si            1.146e-04
   H4SiO4          1.139e-04   1.248e-04    -3.943    -3.904     0.040     51.45
   H3SiO4-         6.786e-07   4.506e-07    -6.168    -6.346    -0.178     28.72
   H2SiO4-2        3.925e-12   9.546e-13   -11.406   -12.020    -0.614     (0)  

------------------------------Saturation indices-------------------------------

  Phase               SI** log IAP   log K(306 K,   1 atm)

  Chalcedony       -0.44     -3.90   -3.46  SiO2
  Chrysotile        0.61     31.81   31.20  Mg3Si2O5(OH)4
  H2(g)           -22.61    -25.72   -3.12  H2
  H2O(g)           -1.30     -0.00    1.30  H2O
  O2(g)           -35.38    -38.33   -2.95  O2
  Quartz           -0.04     -3.90   -3.86  SiO2
  Sepiolite        -0.85     14.70   15.55  Mg2Si3O7.5OH:3H2O
  Sepiolite(d)     -3.96     14.70   18.66  Mg2Si3O7.5OH:3H2O
  SiO2(a)          -1.26     -3.90   -2.65  SiO2
  Stevensite       -1.50     23.95   25.45  Si4.00Mg2.9O10(OH)2Ca0.1
  Talc              3.53     24.01   20.48  Mg3Si4O10(OH)2

**For a gas, SI = log10(fugacity). Fugacity = pressure * phi / 1 atm.
  For ideal gases, phi = 1.

------------------
End of simulation.
------------------

-------------------------------------
Reading input data for simulation 58.
-------------------------------------

	SOLUTION 59 Saline water Lake Clifton inactive Surface 
	    temp      18.3 
	    pH        7.54 
	    pe        4 
	    redox     pe 
	    units     mol/l 
	    density   1 
	    Mg        0.154 
	    Ca        0.0401 
	    Si        0.000130 
	    water    1 # kg 
	END 
-------------------------------------------
Beginning of initial solution calculations.
-------------------------------------------

Initial solution 59.	Saline water Lake Clifton inactive Surface 

-----------------------------Solution composition------------------------------

	Elements           Molality       Moles

	Ca                4.032e-02   4.032e-02
	Mg                1.548e-01   1.548e-01
	Si                1.307e-04   1.307e-04

----------------------------Description of solution----------------------------

                                       pH  =   7.540    
                                       pe  =   4.000    
      Specific Conductance (µS/cm,  18°C)  = 10852
                          Density (g/cm³)  =   1.00780
                               Volume (L)  =   0.99761
                        Activity of water  =   0.997
                 Ionic strength (mol/kgw)  =   3.903e-01
                       Mass of water (kg)  =   1.000e+00
                 Total alkalinity (eq/kg)  =   5.577e-06
                         Temperature (°C)  =  18.30
                  Electrical balance (eq)  =   3.903e-01
 Percent error, 100*(Cat-|An|)/(Cat+|An|)  = 100.00
                               Iterations  =   3
                                  Total H  = 1.110130e+02
                                  Total O  = 5.550674e+01

----------------------------Distribution of species----------------------------

                                               Log       Log       Log    mole V
   Species          Molality    Activity  Molality  Activity     Gamma   cm³/mol

   OH-             3.147e-07   2.062e-07    -6.502    -6.686    -0.184     -3.47
   H+              3.723e-08   2.884e-08    -7.429    -7.540    -0.111      0.00
   H2O             5.551e+01   9.967e-01     1.744    -0.001     0.000     18.04
Ca            4.032e-02
   Ca+2            4.032e-02   1.114e-02    -1.395    -1.953    -0.559    -17.12
   CaOH+           8.714e-08   6.388e-08    -7.060    -7.195    -0.135     (0)  
H(0)          1.153e-26
   H2              5.763e-27   6.304e-27   -26.239   -26.200     0.039     28.61
Mg            1.548e-01
   Mg+2            1.548e-01   4.730e-02    -0.810    -1.325    -0.515    -20.48
   MgOH+           4.363e-06   3.196e-06    -5.360    -5.495    -0.135     (0)  
O(0)          0.000e+00
   O2              0.000e+00   0.000e+00   -42.233   -42.194     0.039     29.83
Si            1.307e-04
   H4SiO4          1.299e-04   1.421e-04    -3.887    -3.848     0.039     52.70
   H3SiO4-         8.485e-07   5.693e-07    -6.071    -6.245    -0.173     28.30
   H2SiO4-2        3.386e-12   8.527e-13   -11.470   -12.069    -0.599     (0)  

------------------------------Saturation indices-------------------------------

  Phase               SI** log IAP   log K(291 K,   1 atm)

  Chalcedony       -0.21     -3.84   -3.63  SiO2
  Chrysotile        0.52     33.57   33.05  Mg3Si2O5(OH)4
  H2(g)           -23.12    -26.20   -3.08  H2
  H2O(g)           -1.68     -0.00    1.68  H2O
  O2(g)           -39.35    -42.19   -2.84  O2
  Quartz            0.24     -3.84   -4.08  SiO2
  Sepiolite         0.03     15.97   15.94  Mg2Si3O7.5OH:3H2O
  Sepiolite(d)     -2.69     15.97   18.66  Mg2Si3O7.5OH:3H2O
  SiO2(a)          -1.08     -3.84   -2.77  SiO2
  Stevensite        0.37     25.82   25.45  Si4.00Mg2.9O10(OH)2Ca0.1
  Talc              3.70     25.88   22.18  Mg3Si4O10(OH)2

**For a gas, SI = log10(fugacity). Fugacity = pressure * phi / 1 atm.
  For ideal gases, phi = 1.

------------------
End of simulation.
------------------

-------------------------------------
Reading input data for simulation 59.
-------------------------------------

	SELECTED_OUTPUT 2
	    file                 Stevensite_SI_final
	    saturation_indices   Stevensite
------------------
End of simulation.
------------------

-------------------------------------
Reading input data for simulation 60.
-------------------------------------

-------------------------------
End of Run after 0.639 Seconds.
-------------------------------

